#generated using pymatgen
data_LiFePO4
_symmetry_space_group_name_H-M   'P 1'
_cell_length_a   10.33200000
_cell_length_b   4.78700000
_cell_length_c   24.04000000
_cell_angle_alpha   90.00000000
_cell_angle_beta   90.00000000
_cell_angle_gamma   90.00000000
_symmetry_Int_Tables_number   1
_chemical_formula_structural   LiFePO4
_chemical_formula_sum   'Li8 Fe8 P8 O32'
_cell_volume   1189.00118736
_cell_formula_units_Z   0
loop_
 _symmetry_equiv_pos_site_id
 _symmetry_equiv_pos_as_xyz
  1  'x, y, z'
loop_
 _atom_type_symbol
 _atom_type_oxidation_number
  Li+  1.0
  Fe2+  2.0
  P5+  5.0
  O2-  -2.0
loop_
 _atom_site_type_symbol
 _atom_site_label
 _atom_site_symmetry_multiplicity
 _atom_site_fract_x
 _atom_site_fract_y
 _atom_site_fract_z
 _atom_site_occupancy
  Li+  Li1  1  0.500000  0.500000  0.380825  1.0
  Li+  Li2  1  0.500000  0.500000  0.630825  1.0
  Li+  Li3  1  0.000000  0.000000  0.255825  1.0
  Li+  Li4  1  0.000000  0.000000  0.505825  1.0
  Li+  Li5  1  0.500000  0.500000  0.255825  1.0
  Li+  Li6  1  0.500000  0.500000  0.505825  1.0
  Li+  Li7  1  0.000000  0.000000  0.380825  1.0
  Li+  Li8  1  0.000000  0.000000  0.630825  1.0
  Fe2+  Fe9  1  0.782210  0.525270  0.443325  1.0
  Fe2+  Fe10  1  0.782210  0.525270  0.693325  1.0
  Fe2+  Fe11  1  0.282210  0.974730  0.443325  1.0
  Fe2+  Fe12  1  0.282210  0.974730  0.693325  1.0
  Fe2+  Fe13  1  0.217790  0.474730  0.318325  1.0
  Fe2+  Fe14  1  0.217790  0.474730  0.568325  1.0
  Fe2+  Fe15  1  0.717790  0.025270  0.318325  1.0
  Fe2+  Fe16  1  0.717790  0.025270  0.568325  1.0
  P5+  P17  1  0.594850  0.080790  0.443325  1.0
  P5+  P18  1  0.594850  0.080790  0.693325  1.0
  P5+  P19  1  0.094850  0.419210  0.443325  1.0
  P5+  P20  1  0.094850  0.419210  0.693325  1.0
  P5+  P21  1  0.405150  0.919210  0.318325  1.0
  P5+  P22  1  0.405150  0.919210  0.568325  1.0
  P5+  P23  1  0.905150  0.580790  0.318325  1.0
  P5+  P24  1  0.905150  0.580790  0.568325  1.0
  O2-  O25  1  0.596800  0.757000  0.443325  1.0
  O2-  O26  1  0.596800  0.757000  0.693325  1.0
  O2-  O27  1  0.096800  0.743000  0.443325  1.0
  O2-  O28  1  0.096800  0.743000  0.693325  1.0
  O2-  O29  1  0.403200  0.243000  0.318325  1.0
  O2-  O30  1  0.403200  0.243000  0.568325  1.0
  O2-  O31  1  0.903200  0.257000  0.318325  1.0
  O2-  O32  1  0.903200  0.257000  0.568325  1.0
  O2-  O33  1  0.956700  0.294000  0.443325  1.0
  O2-  O34  1  0.956700  0.294000  0.693325  1.0
  O2-  O35  1  0.456700  0.206000  0.443325  1.0
  O2-  O36  1  0.456700  0.206000  0.693325  1.0
  O2-  O37  1  0.043300  0.706000  0.318325  1.0
  O2-  O38  1  0.043300  0.706000  0.568325  1.0
  O2-  O39  1  0.543300  0.794000  0.318325  1.0
  O2-  O40  1  0.543300  0.794000  0.568325  1.0
  O2-  O41  1  0.665670  0.215300  0.392475  1.0
  O2-  O42  1  0.665670  0.215300  0.642475  1.0
  O2-  O43  1  0.165670  0.284700  0.494175  1.0
  O2-  O44  1  0.165670  0.284700  0.744175  1.0
  O2-  O45  1  0.334330  0.784700  0.267475  1.0
  O2-  O46  1  0.334330  0.784700  0.517475  1.0
  O2-  O47  1  0.834330  0.715300  0.369175  1.0
  O2-  O48  1  0.834330  0.715300  0.619175  1.0
  O2-  O49  1  0.334330  0.784700  0.369175  1.0
  O2-  O50  1  0.334330  0.784700  0.619175  1.0
  O2-  O51  1  0.834330  0.715300  0.267475  1.0
  O2-  O52  1  0.834330  0.715300  0.517475  1.0
  O2-  O53  1  0.665670  0.215300  0.494175  1.0
  O2-  O54  1  0.665670  0.215300  0.744175  1.0
  O2-  O55  1  0.165670  0.284700  0.392475  1.0
  O2-  O56  1  0.165670  0.284700  0.642475  1.0
